Version 4
SHEET 1 880 680
WIRE 64 48 -48 48
WIRE 176 48 144 48
WIRE 48 96 48 -16
WIRE -192 112 -352 112
WIRE -48 112 -48 48
WIRE -48 112 -112 112
WIRE 16 112 -48 112
WIRE 176 128 176 48
WIRE 176 128 80 128
WIRE 16 144 -32 144
WIRE 176 160 176 128
WIRE -32 208 -32 144
WIRE 48 240 48 160
WIRE 176 272 176 240
FLAG 48 240 VSS
FLAG 48 -16 VCC
FLAG -304 -48 VCC
FLAG -432 32 VSS
FLAG -352 192 0
FLAG -32 208 0
FLAG 176 272 0
FLAG -304 32 0
FLAG -432 -48 0
SYMBOL res 160 144 R0
SYMATTR InstName R1
SYMATTR Value 10k
SYMBOL voltage -352 96 R0
WINDOW 123 0 0 Left 0
WINDOW 39 0 0 Left 0
SYMATTR InstName V1
SYMATTR Value SINE(0 0.2 10KHz)
SYMBOL voltage -304 -64 R0
WINDOW 123 0 0 Left 0
WINDOW 39 0 0 Left 0
SYMATTR InstName V2
SYMATTR Value 5v
SYMBOL Opamps\\OP727 48 64 R0
SYMATTR InstName U1
SYMBOL voltage -432 -64 R0
WINDOW 123 0 0 Left 0
WINDOW 39 0 0 Left 0
SYMATTR InstName V3
SYMATTR Value 5v
SYMBOL res -96 96 R90
WINDOW 0 0 56 VBottom 2
WINDOW 3 32 56 VTop 2
SYMATTR InstName R2
SYMATTR Value 1k
SYMBOL res 160 32 R90
WINDOW 0 0 56 VBottom 2
WINDOW 3 32 56 VTop 2
SYMATTR InstName R3
SYMATTR Value 10k
TEXT -400 232 Left 2 !.tran 1ms
